!!!!!!!!!!!!!!!!!!!!!!!!!!!!!!!!!!!!!!!!!!!!!!!!!!!!!!!!!!!!!!!!!!!!!!!!!!!!!!!!
!                                                                              !
!                This CHEMKIN mechanism file is part of the                    !
!                        Supplemental Material for                             !
!                                                                              !
!       The importance of chemical mechanisms in sonochemical modelling        !
!                                                                              !
!    C. Kalmár 1, T. Turányi 2, I. G. Zsély 2, M. Papp 2, F. Hegedűs 1         !
!                                                                              !
! 1 Department of Hydrodynamic Systems, University of Technology and Economics,!
!                              Budapest, Hungary                               !
! 2 Institute of Chemistry, Eötvös University (ELTE), Budapest, Hungary        !
!                                                                              !
!                          Ultrason. Sonochem., 2021                           !
!                                                                              !
!!!!!!!!!!!!!!!!!!!!!!!!!!!!!!!!!!!!!!!!!!!!!!!!!!!!!!!!!!!!!!!!!!!!!!!!!!!!!!!!

ELEMENTS
H O
END

SPECIES
O H H2 OH O2 H2O HO2 H2O2 O3 OHEX
END

THERMO ALL
   300.000  1000.000  5000.000
H                 L 6/94H   1    0    0    0G   200.000  6000.00  1000.00      1
 0.25000000E+01 0.00000000E+00 0.00000000E+00 0.00000000E+00 0.00000000E+00    2
 0.25473660E+05-0.44668285E+00 0.25000000E+01 0.00000000E+00 0.00000000E+00    3
 0.00000000E+00 0.00000000E+00 0.25473660E+05-0.44668285E+00 0.26219035E+05    4
H2                TPIS78H   2    0    0    0G   200.000  6000.00  1000.00      1
 2.93286575E+00 8.26608026E-04-1.46402364E-07 1.54100414E-11-6.88804800E-16    2
-8.13065581E+02-1.02432865E+00 2.34433112E+00 7.98052075E-03-1.94781510E-05    3
 2.01572094E-08-7.37611761E-12-9.17935173E+02 6.83010238E-01 0.00000000E+00    4
O                 L 1/90O   1    0    0    0G   200.000  6000.00  1000.00      1
 2.54363697E+00-2.73162486E-05-4.19029520E-09 4.95481845E-12-4.79553694E-16    2
 2.92260120E+04 4.92229457E+00 3.16826710E+00-3.27931884E-03 6.64306396E-06    3
-6.12806624E-09 2.11265971E-12 2.91222592E+04 2.05193346E+00 2.99687009E+04    4
O2                RUS 89O   2    0    0    0G   200.000  6000.00  1000.00      1
 3.66096065E+00 6.56365811E-04-1.41149627E-07 2.05797935E-11-1.29913436E-15    2
-1.21597718E+03 3.41536279E+00 3.78245636E+00-2.99673416E-03 9.84730201E-06    3
-9.68129509E-09 3.24372837E-12-1.06394356E+03 3.65767573E+00 0.00000000E+00    4
OH                IU3/03O   1 H  1    0    0G   200.000  6000.00  1000.00      1
 2.83853033E+00 1.10741289E-03-2.94000209E-07 4.20698729E-11-2.42289890E-15    2
 3.69780808E+03 5.84494652E+00 3.99198424E+00-2.40106655E-03 4.61664033E-06    3
-3.87916306E-09 1.36319502E-12 3.36889836E+03-1.03998477E-01 4.48613328E+03    4
H2O               L 5/89H   2 O  1    0    0G   200.000  6000.00  1000.00      1
 0.26770389E+01 0.29731816E-02-0.77376889E-06 0.94433514E-10-0.42689991E-14    2
-0.29885894E+05 0.68825500E+01 0.41986352E+01-0.20364017E-02 0.65203416E-05    3
-0.54879269E-08 0.17719680E-11-0.30293726E+05-0.84900901E+00-0.29084817E+05    4
HO2               T 1/09H   1O   2    0    0G   200.000  5000.00  1000.00      1
 4.17228741E+00 1.88117627E-03-3.46277286E-07 1.94657549E-11 1.76256905E-16    2
 3.10206839E+01 2.95767672E+00 4.30179807E+00-4.74912097E-03 2.11582905E-05    3
-2.42763914E-08 9.29225225E-12 2.64018485E+02 3.71666220E+00 1.47886045E+03    4
H2O2              T 8/03H   2O   2    0    0G   200.000  6000.00  1000.00      1
 4.57977305E+00 4.05326003E-03-1.29844730E-06 1.98211400E-10-1.13968792E-14    2
-1.80071775E+04 6.64970694E-01 4.31515149E+00-8.47390622E-04 1.76404323E-05    3
-2.26762944E-08 9.08950158E-12-1.77067437E+04 3.27373319E+00-1.63425145E+04    4
OHEX                    H   1O   1    0    0G    300.00   5000.00 1000.00    0 1
 2.88273000E+00 1.01397430E-03-2.27687700E-07 2.17468300E-11-5.12630500E-16    2
 5.02650000E+04 5.59571200E+00 3.63726600E+00 1.85091000E-04-1.67616460E-06    3
 2.38720200E-09-8.43144200E-13 5.00213000E+04 1.35886050E+00                   4
O3                l 5/90O   3    0    0    0G   200.000  6000.000  1000.       1
 1.23302914e+01-1.19324783e-02 7.98741278e-06-1.77194552e-09 1.26075824e-13    2
 1.26755831e+04-4.08823374e+01 3.40738221e+00 2.05379063e-03 1.38486052e-05    3
-2.23311542e-08 9.76073226e-12 1.58644979e+04 8.28247580e+00 1.70545228e+04    4
END

REACTIONS   MOLES  KELVINS
!################
!   H submech   #
!################
!     1
H+O2<=>O+OH                  5.0712E+015   -0.48596       8116.1
!     2
O+H2<=>H+OH                  1.2554E+006    2.27039       3501.2
!     3
OH+H2<=>H+H2O                1.3193E+007    1.87803       1585.8
!     4
2OH<=>O+H2O                  8.4999E+004    2.26419      -898.23
!     5
2H+M<=>H2+M                  4.9806E+018   -1.21273       308.02
H2/2.5/ O2/1/ H2O/12/
! Added O2 and AR as a potential thirdbody

!     6
2O+M<=>O2+M                    6.165E+15    -0.5000        0.00
H2/2.5/ H2O/12/
!     7
O+H+M<=>OH+M                   4.714E+18    -1.0000        0.00
H2/2.5/ O2/1/ H2O/12/
! Added O2 as a potential thirdbody

!     8
H+OH+M<=>H2O+M               1.4818E+024   -2.53792       60.788
H2/2.5/ O2/1/ H2O/12/
! Added O2 as a potential thirdbody

!     9
H+O2(+M)<=>HO2(+M)             4.650E+12     0.4400        0.00
LOW                  /       5.2669E+019   -1.37367        0.00     /
TROE                 /         6.700E-01    1.0E-30     1.0E+30    1.0E+30 /
H2/1.511/ O2/1.00/ H2O/11.372/
! Added O2 as a potential thirdbody

!    10
H+HO2<=>H2+O2                2.1231E+006    2.11330      -817.68
!    11
HO2+H<=>2OH                  5.7734E+013     0.000        86.070
!    12
HO2+O<=>OH+O2                  3.250E+13     0.000         0.00
!    13
HO2+OH<=>H2O+O2              9.5840E+011    0.42008      -477.40
!    14
2HO2<=>H2O2+O2                 1.300E+11     0.000       -820.33
DUPLICATE
!    15
2HO2<=>H2O2+O2               1.6048E+015     0.0000       7825.6
DUPLICATE
!    16
2OH(+M)<=>H2O2(+M)             2.148E+05     2.3219    -1712.31
LOW                  /       1.9928E+018   -1.17797    -2150.31     /
TROE                 /        4.3000E-01  1.0000E-30 1.0000E+30 1.0000E+30 /
H2O/5/ O2/0.8/ H2O2/5.13/ H2/2.47/
!    17
H2O2+H<=>H2O+OH                2.410E+13     0.0000     1997.99
!    18
H2O2+H<=>H2+HO2              9.7543E+019   -1.92495       4743.4
!    19
H2O2+O<=>OH+HO2                9.550E+06     2.0000     1997.99
!    20
H2O2+OH<=>H2O+HO2              1.740E+12     0.0000      160.04
DUPLICATE
!    21
H2O2+OH<=>H2O+HO2              7.590E+13     0.0000     3658.28
DUPLICATE
!################
! OHEX submech  #
!################
!    34
H+O+M<=>OHEX+M                 1.500E+13     0.0000     3007.05
H2/1/ H2O/6.5/ O2/0.4/
!    35
OHEX+H2O<=>OH+H2O              5.930E+12     0.5000     -432.81
!    36
OHEX+H2<=>OH+H2                2.950E+12     0.5000     -223.45
!    38
OHEX+OH<=>2OH                  6.010E+12     0.5000     -384.50
!    39
OHEX+H<=>OH+H                  1.310E+12     0.5000      -84.05
!    42
OHEX+O2<=>OH+O2                2.100E+12     0.5000     -240.56

!################
! O3 submech  #
!################

O3(+M)=O2+O(+M)			1.37E+15	-0.67	1.066912E+4
LOW	/2.275E+28	-4.37	11205.65/
Troe	/0.6417	3.91E-04	8680.74	6060.75/
H2/3.0/	O2/1.50/ O3/3.75/ O/6.0/

O3+O=O2+O2	 			4.82E+12 	0.00 	1.680623E+3

O3+H=O2+OH 				8.43E+13 	0.00 	3.834151E+2

O3+H=O+HO2				4.52E+11 	0.00	0

O3+OH=O2+HO2			1.85E+11 	0.00	 3.411327E+2

O3+H2O=O2+H2O2			6.62E+01 	0.00	 0

O3+HO2=OH+O2+O2			6.62E+09 	0.00 	4.080456E+2

END