ELEMENTS
AR C H HE N !!O 
END

SPECIES
AR H H2 H2NN !!H2NO H2O H2O2 HE HNO HNO2 HNOH HO2 HON HONO HONO2 
N N2 N2H2 N2H3 
N2H4 !!N2O NH NH2 NH2OH NH3 NNH NO NO2 NO3 O O2 OH 
END

THERMO ALL
300.000000 1000.000000 5000.000000
AR                      AR  1    0    0    0G    300      5000     1000        1
 2.50000000E+00 0.00000000E+00 0.00000000E+00 0.00000000E+00 0.00000000E+00    2
-7.45375000E+02 4.36600000E+00 2.50000000E+00 0.00000000E+00 0.00000000E+00    3
 0.00000000E+00 0.00000000E+00-7.45375000E+02 4.36600000E+00 0.00000000E+00    4
H                       H   1    0    0    0G    200      3500     1000        1
 2.50000001E+00-2.30842973E-11 1.61561948E-14-4.73515235E-18 4.98197357E-22    2
 2.54736599E+04-4.46682914E-01 2.50000000E+00 7.05332819E-13-1.99591964E-15    3
 2.30081632E-18-9.27732332E-22 2.54736599E+04-4.46682853E-01 0.00000000E+00    4
H2                      H   2    0    0    0G    200      3500     1000        1
 3.33727920E+00-4.94024731E-05 4.99456778E-07-1.79566394E-10 2.00255376E-14    2
-9.50158922E+02-3.20502331E+00 2.34433112E+00 7.98052075E-03-1.94781510E-05    3
 2.01572094E-08-7.37611761E-12-9.17935173E+02 6.83010238E-01 0.00000000E+00    4
H2NN                    H   2N   2    0    0G    200      6000     1000        1
 3.05903670E+00 6.18382347E-03-2.22171165E-06 3.58539206E-10-2.14532905E-14    2
 3.48530149E+04 6.69893515E+00 4.53204001E+00-7.32418578E-03 3.00803713E-05    3
-3.04000551E-08 1.04700639E-11 3.49580003E+04 1.51074195E+00 0.00000000E+00    4
!!H2NO                    H   2O   1N   1    0G    300      4000     1500        1
!! 5.67334600E+00 2.29883700E-03-1.77444600E-07-1.10348200E-10 1.85976200E-14    2
!! 5.56932500E+03-6.15354000E+00 2.53059000E+00 8.59603500E-03-5.47103000E-06    3
!! 2.27624900E-09-4.64807300E-13 6.86803000E+03 1.12665100E+01 0.00000000E+00    4
!!H2O                     H   2O   1    0    0G    200      3500     1000        1
!! 3.03399249E+00 2.17691804E-03-1.64072518E-07-9.70419870E-11 1.68200992E-14    2
!!-3.00042971E+04 4.96677010E+00 4.19864056E+00-2.03643410E-03 6.52040211E-06    3
!!-5.48797062E-09 1.77197817E-12-3.02937267E+04-8.49032208E-01 0.00000000E+00    4
!!H2O2                    H   2O   2    0    0G    200      3500     1000        1
!! 4.16500285E+00 4.90831694E-03-1.90139225E-06 3.71185986E-10-2.87908305E-14    2
!!-1.78617877E+04 2.91615662E+00 4.27611269E+00-5.42822417E-04 1.67335701E-05    3
!!-2.15770813E-08 8.62454363E-12-1.77025821E+04 3.43505074E+00 0.00000000E+00    4
HE                      HE  1    0    0    0G    200      6000     1000        1
 2.50000000E+00 0.00000000E+00 0.00000000E+00 0.00000000E+00 0.00000000E+00    2
-7.45375000E+02 9.28723974E-01 2.50000000E+00 0.00000000E+00 0.00000000E+00    3
 0.00000000E+00 0.00000000E+00-7.45375000E+02 9.28723974E-01 0.00000000E+00    4
!!HNO                     H   1O   1N   1    0G    300      5000     1000        1
!! 3.61514400E+00 3.21248600E-03-1.26033700E-06 2.26729800E-10-1.53623600E-14    2
!! 1.06619100E+04 4.81026400E+00 2.78440300E+00 6.60964600E-03-9.30022300E-06    3
!! 9.43798000E-09-3.75314600E-12 1.09187800E+04 9.03562900E+00 0.00000000E+00    4
!!HNO2                    H   1O   2N   1    0G    300      4000     1500        1
!! 6.47963000E+00 1.99527400E-03-1.74038700E-07-9.69587200E-11 1.70148000E-14    2
!!-7.80950291E+03-1.06771518E+01 1.93483800E+00 1.01003600E-02-4.96461600E-06    3
!! 8.70112000E-10-2.32413500E-15-5.91571591E+03 1.47282082E+01 0.00000000E+00    4
!!HNOH                    H   2O   1N   1    0G    200      6000     1000        1
!! 3.98321933E+00 4.88846374E-03-1.65086637E-06 2.55371446E-10-1.48308561E-14    2
!! 1.05780106E+04 3.62582838E+00 3.95608248E+00-3.02611020E-03 2.56874396E-05    3
!!-3.15645120E-08 1.24084574E-11 1.09199790E+04 5.55950983E+00 0.00000000E+00    4
!!HO2                     H   1O   2    0    0G    200      3500     1000        1
!! 4.01721090E+00 2.23982013E-03-6.33658150E-07 1.14246370E-10-1.07908535E-14    2
!! 1.11856713E+02 3.78510215E+00 4.30179801E+00-4.74912051E-03 2.11582891E-05    3
!!-2.42763894E-08 9.29225124E-12 2.94808040E+02 3.71666245E+00 0.00000000E+00    4
!!HON                     H   1O   1N   1    0G    300      5000     1671        1
!! 3.78577430E+00 2.86062728E-03-1.02423922E-06 1.64463139E-10-9.77943616E-15    2
!! 2.93319701E+04 3.12193293E+00 3.33656431E+00 2.67682939E-03 5.61801303E-07    3
!!-1.11362279E-09 2.84076438E-13 2.95979751E+04 5.96343188E+00 0.00000000E+00    4
!!HONO                    H   1O   2N   1    0G    300      5000     1000        1
!! 5.48689300E+00 4.21806500E-03-1.64914300E-06 2.97187700E-10-2.02114800E-14    2
!!-1.12686500E+04-2.99700200E+00 2.29041300E+00 1.40992200E-02-1.36787200E-05    3
!! 7.49878000E-09-1.87690500E-12-1.04319500E+04 1.32807700E+01 0.00000000E+00    4
!!HONO2                   H   1O   3N   1    0G    200      6000     1000        1
!! 8.03098942E+00 4.46958589E-03-1.72459491E-06 2.91556153E-10-1.80102702E-14    2
!!-1.92821685E+04-1.62616720E+01 1.69329154E+00 1.90167702E-02-8.25176697E-06    3
!!-6.06113827E-09 4.65236978E-12-1.73882411E+04 1.71839655E+01 0.00000000E+00    4
N                       N   1    0    0    0G    300      5000     1000        1
 2.45026800E+00 1.06614600E-04-7.46533700E-08 1.87965200E-11-1.02598400E-15    2
 5.61160400E+04 4.44875800E+00 2.50307100E+00-2.18001800E-05 5.42052900E-08    3
-5.64756000E-11 2.09990400E-14 5.60989000E+04 4.16756600E+00 0.00000000E+00    4
N2                      N   2    0    0    0G    300      5000     1000        1
 2.92664000E+00 1.48797680E-03-5.68476000E-07 1.00970380E-10-6.75335100E-15    2
-9.22797700E+02 5.98052800E+00 3.29867700E+00 1.40824040E-03-3.96322200E-06    3
 5.64151500E-09-2.44485400E-12-1.02089990E+03 3.95037200E+00 0.00000000E+00    4
N2H2                    H   2N   2    0    0G    298.15   2000     1000        1
 2.38388380E+00 6.63619559E-03-1.81669068E-06-1.19497031E-10 9.31659255E-14    2
 2.34207532E+04 1.06091658E+01 4.14915878E+00-4.82013543E-03 2.19606525E-05    3
-2.03662902E-08 6.25367200E-12 2.32874597E+04 3.19154222E+00 0.00000000E+00    4
N2H3                    H   3N   2    0    0G    200      6000     1000        1
 4.04483566E+00 7.31130186E-03-2.47625799E-06 3.83733021E-10-2.23107573E-14    2
 2.48098603E+04 2.88423392E+00 3.42125505E+00 1.34901590E-03 2.23459071E-05    3
-2.99727732E-08 1.20978970E-11 2.53056139E+04 7.83176309E+00 0.00000000E+00    4
N2H4                    H   4N   2    0    0G    200      6000     1000        1
 4.93957357E+00 8.75017187E-03-2.99399058E-06 4.67278418E-10-2.73068599E-14    2
 9.28265548E+03-2.69439772E+00 3.83472149E+00-6.49129555E-04 3.76848463E-05    3
-5.00709182E-08 2.03362064E-11 1.00893925E+04 5.75272030E+00 0.00000000E+00    4
!!N2O                     O   1N   2    0    0G    300      5000     1000        1
!! 4.71897700E+00 2.87371400E-03-1.19749600E-06 2.25055200E-10-1.57533700E-14    2
!! 8.16581100E+03-1.65725000E+00 2.54305800E+00 9.49219300E-03-9.79277500E-06    3
!! 6.26384500E-09-1.90182600E-12 8.76510000E+03 9.51122200E+00 0.00000000E+00    4
NH                      H   1N   1    0    0G    298.15   2000     1000        1
 3.38393047E+00-3.04401048E-04 1.07871576E-06-5.39749068E-10 8.56574985E-14    2
 4.18557586E+04 2.60065696E+00 3.49138447E+00 2.48105072E-04-1.22352658E-06    3
 1.97740127E-09-7.89210613E-13 4.17851517E+04 1.83667301E+00 0.00000000E+00    4
NH2                     H   2N   1    0    0G    298.15   2000     1000        1
 3.80751460E+00 1.74138848E-04 2.06281679E-06-1.18308148E-09 2.00814234E-13    2
 2.12757238E+04 1.57634407E+00 4.02590054E+00-9.53251946E-04 4.13467348E-06    3
-2.81816628E-09 6.73047183E-13 2.12447390E+04 5.86219857E-01 0.00000000E+00    4
!!NH2OH                   H   3O   1N   1    0G    200      6000     1000        1
!! 3.88112502E+00 8.15708448E-03-2.82615576E-06 4.37930933E-10-2.52724604E-14    2
!!-6.86018419E+03 3.79156136E+00 3.21016092E+00 6.19671676E-03 1.10594948E-05    3
!!-1.96668262E-08 8.82516590E-12-6.58148481E+03 7.93293571E+00 0.00000000E+00    4
NH3                     H   3N   1    0    0G    300      5000     1000        1
 2.46190400E+00 6.05916600E-03-2.00497700E-06 3.13600300E-10-1.93831700E-14    2
-6.49327000E+03 7.47209700E+00 2.20435200E+00 1.01147600E-02-1.46526500E-05    3
 1.44723500E-08-5.32850900E-12-6.52548800E+03 8.12713800E+00 0.00000000E+00    4
NNH                     H   1N   2    0    0G    298.15   2000     1000        1
 2.78024159E+00 4.51114118E-03-1.98147075E-06 3.61161241E-10-1.55679242E-14    2
 2.93473063E+04 9.91752869E+00 3.86231284E+00-4.41898698E-04 6.38522141E-06    3
-5.84138844E-09 1.69125822E-12 2.91621298E+04 4.85334915E+00 0.00000000E+00    4
!!NO                      O   1N   1    0    0G    300      5000     1000        1
!! 3.24543500E+00 1.26913800E-03-5.01589000E-07 9.16928300E-11-6.27541900E-15    2
!! 9.80084000E+03 6.41729400E+00 3.37654200E+00 1.25306300E-03-3.30275100E-06    3
!! 5.21781000E-09-2.44626300E-12 9.81796100E+03 5.82959000E+00 0.00000000E+00    4
!!NO2                     O   2N   1    0    0G    300      5000     1000        1
!! 4.68285900E+00 2.46242900E-03-1.04225900E-06 1.97690200E-10-1.39171700E-14    2
!! 2.26129200E+03 9.88598500E-01 2.67060000E+00 7.83850100E-03-8.06386500E-06    3
!! 6.16171500E-09-2.32015000E-12 2.89629100E+03 1.16120700E+01 0.00000000E+00    4
!!NO3                     O   3N   1    0    0G    200      6000     1000        1
!! 7.48347702E+00 2.57772064E-03-1.00945831E-06 1.72314063E-10-1.07154008E-14    2
!! 6.12990474E+03-1.41618136E+01 2.17359330E+00 1.04902685E-02 1.10472669E-05    3
!!-2.81561867E-08 1.36583960E-11 7.81290905E+03 1.46022090E+01 0.00000000E+00    4
!!O                       O   1    0    0    0G    200      3500     1000        1
!! 2.56942078E+00-8.59741137E-05 4.19484589E-08-1.00177799E-11 1.22833691E-15    2
!! 2.92175791E+04 4.78433864E+00 3.16826710E+00-3.27931884E-03 6.64306396E-06    3
!!-6.12806624E-09 2.11265971E-12 2.91222592E+04 2.05193346E+00 0.00000000E+00    4
!!O2                      O   2    0    0    0G    200      3500     1000        1
!! 3.28253784E+00 1.48308754E-03-7.57966669E-07 2.09470555E-10-2.16717794E-14    2
!!-1.08845772E+03 5.45323129E+00 3.78245636E+00-2.99673416E-03 9.84730201E-06    3
!!-9.68129509E-09 3.24372837E-12-1.06394356E+03 3.65767573E+00 0.00000000E+00    4
!!OH                      H   1O   1    0    0G    200      6000     1000        1
!! 2.86472886E+00 1.05650448E-03-2.59082758E-07 3.05218674E-11-1.33195876E-15    2
!! 3.71885774E+03 5.70164073E+00 4.12530561E+00-3.22544939E-03 6.52764691E-06    3
!!-5.79853643E-09 2.06237379E-12 3.38153812E+03-6.90432960E-01 0.00000000E+00    4
END
REACTIONS MOLES KELVINS

! R0001
!!H+O2=O+OH                           1.0400E+14  0.00000      7692.21
! R0002
!!O+H2=H+OH                           3.8180E+12  0.00000      3999.59
DUPLICATE
! R0003
!!O+H2=H+OH                           8.7920E+14  0.00000      9646.72
DUPLICATE
! R0004
!!H2+OH=H2O+H                         2.1600E+08  1.51000      1726.04
! R0005
!!2OH=O+H2O                           2.0000E+07  1.65100       317.53
DUPLICATE
! R0006
!!2OH=O+H2O                           2.6000E+11 -0.05700      -416.16
DUPLICATE
! R0007
H2+M=2H+M                           4.5770E+19 -1.40000     52526.06
H2/2.5000/ H2O/12.0000/ AR/0.0000/ HE/0.0000/ 
! R0008
H2+AR=2H+AR                         5.8400E+18 -1.10000     52526.06
! R0009
H2+HE=2H+HE                         5.8400E+18 -1.10000     52526.06
! R0010
!!2O+M=O2+M                           6.1650E+15 -0.50000         0.00
!!H2/2.5000/ H2O/12.0000/ AR/0.0000/ HE/0.0000/ 
! R0011
!!2O+AR=O2+AR                         1.8860E+13  0.00000      -899.76
! R0012
!!2O+HE=O2+HE                         1.8860E+13  0.00000      -899.76
! R0013
!!O+H+M=OH+M                          4.7140E+18 -1.00000         0.00
!!H2/2.5000/ H2O/12.0000/ AR/0.7500/ HE/0.7500/ 
! R0014
!!H2O+M=H+OH+M                        6.0640E+27 -3.32200     60783.89
!!H2/3.0000/ H2O/0.0000/ HE/1.1000/ N2/2.0000/ O2/1.5000/ 
! R0015
!!2H2O=H+OH+H2O                       1.0060E+26 -2.44000     60476.93
! R0016
!!H+O2(+M)=HO2(+M)                    4.6508E+12  0.44000         0.00
!!LOW  /                              6.3660E+20 -1.72000       264.09/
!!TROE /                              5.000E-01   1.00E-30   1.00E+30            /
!!H2/2.0000/ H2O/14.0000/ O2/0.7800/ AR/0.6700/ HE/0.8000/ 
! R0017
!!HO2+H=H2+O2                         2.7500E+06  2.09000      -730.17
! R0018
!!HO2+H=2OH                           7.0790E+13  0.00000       148.45
! R0019
!!HO2+O=O2+OH                         2.8500E+10  1.00000      -364.30
! R0020
!!HO2+OH=H2O+O2                       1.9300E+20 -2.49000       293.88
!!DUPLICATE
! R0021
!!HO2+OH=H2O+O2                       1.2100E+09  1.24000      -659.22
!!DUPLICATE
! R0022
!!2H+O2=H2+O2                         8.8000E+22 -1.83500       402.58
! R0023
!!2H+O2=2OH                           4.0000E+22 -1.83500       402.58
! R0024
!!H+O2+O=OH+O2                        7.3500E+22 -1.83500       402.58
! R0025
!!H+O2+OH=H2O+O2                      2.5600E+22 -1.83500       402.58
! R0026
!!2HO2=H2O2+O2                        1.9300E-02  4.12000     -2495.97
! R0027
!!2HO2=2OH+O2                         6.4100E+17 -1.54000      4297.50
! R0028
!!H2O2(+M)=2OH(+M)                    2.0000E+12  0.90000     24531.45
!!LOW  /                              2.4900E+24 -2.30000     24531.45/
!!TROE /                              4.300E-01   1.00E-30   1.00E+30            /
!!H2O/7.5000/ N2/1.5000/ O2/1.2000/ HE/0.6500/ H2O2/7.7000/ H2/3.7000/ 
! R0029
!!H2O2+H=H2O+OH                       2.4100E+13  0.00000      1997.78
! R0030
!!H2O2+H=HO2+H2                       4.8200E+13  0.00000      4000.60
! R0031
!!H2O2+O=OH+HO2                       9.5500E+06  2.00000      1997.78
! R0032
!!H2O2+OH=HO2+H2O                     1.7400E+12  0.00000       160.02
!!DUPLICATE
! R0033
!!H2O2+OH=HO2+H2O                     7.5900E+13  0.00000      3658.41
!!DUPLICATE
! R0034
N2+M=2N+M                           1.8900E+18 -0.85000    113224.40
!!H2O/16.2500/ 
! R0035
!!N+O+M=NO+M                          7.6000E+14 -0.10000      -890.70
!!H2O/16.2500/ 
! R0036
!!N+NO2=N2O+O                         1.8000E+12  0.00000         0.00
! R0037
!!N+O2=NO+O                           5.8410E+09  1.01000      3120.97
! R0038
!!N+OH=NO+H                           1.0840E+14 -0.20000         0.00
! R0039
!!N+NO=N2+O                           3.2000E+13  0.00000         0.00
! R0040
NH+H=N+H2                           1.6500E+11  0.71000       468.50
! R0041
!!NH+O=NO+H                           4.8200E+13  0.02300        47.81
! R0042
!!NH+O=N+OH                           2.0700E+10  0.62200      -180.15
! R0043
!!NH+OH=HNO+H                         3.2500E+14 -0.37600       -23.15
! R0044
!!NH+OH=N+H2O                         1.5900E+07  1.73300      -289.85
! R0045
!!NH+O2=HNO+O                         3.3200E+09  1.03400      5746.77
! R0046
!!NH+O2=NO+OH                         4.5000E+08  0.79000       601.35
! R0047
2NH=>N2+H2                          6.2600E+12 -0.03600       -80.97
! R0048
2NH=>N2+2H                          5.6340E+13 -0.03600       -80.97
! R0049
NH+N=N2+H                           3.0000E+13  0.00000         0.00
! R0050
!!NH+NO=N2O+H                         2.7000E+15 -0.78000        10.06
! R0051
!!NH+NO=N2+OH                         6.8000E+14 -0.78000        10.06
! R0052
!!NH+NO2=N2O+OH                       4.1000E+12  0.00000         0.00
! R0053
!!NH+NO2=HNO+NO                       5.9000E+12  0.00000         0.00
! R0054
!!NH+HONO=NH2+NO2                     1.0000E+13  0.00000         0.00
! R0055
!!NH+N2O=N2+HNO                       2.0000E+12  0.00000      3019.32
! R0056
NH2+M=NH+H+M                        1.2000E+15  0.00000     38246.07
! R0057
NH2+H=NH+H2                         1.0900E+05  2.59000       912.00
! R0058
!!NH2+O=NH+OH                         7.2300E+12  0.00000         0.00
! R0059
!!NH2+O=HNO+H                         1.5000E+15 -0.54700       421.04
!!DUPLICATE
! R0060
!!NH2+O=HNO+H                         7.7300E+13 -0.27700       325.28
!!DUPLICATE
! R0061
!!NH2+OH=NH+H2O                       4.0400E+04  2.52000      -310.00
! R0062
!!NH2+HO2=H2NO+OH                     5.0000E+13  0.00000         0.00
! R0063
!!NH2+HO2=NH3+O2                      2.1800E+06  2.08000     -2395.33
! R0064
!!NH2+O2=H2NO+O                       2.6000E+11  0.48720     14643.69
! R0065
!!NH2+O2=HNO+OH                       2.9000E-02  3.76400      9151.05
! R0066
NH2+N=N2+2H                         6.9000E+13  0.00000         0.00
! R0067
!!NH2+NO=NNH+OH                       3.1000E+13 -0.48000       593.80
! R0068
!!NH2+NO=N2+H2O                       1.1000E+20 -2.51400       644.12
! R0069
!!NH2+NO2=H2NO+NO                     8.6000E+11  0.11000      -596.82
! R0070
!!NH2+NO2=N2O+H2O                     2.2000E+11  0.11000      -596.82
! R0071
!!NH2+HNO=NH3+NO                      5.9000E+02  2.95000     -1745.67
! R0072
!!NH2+HONO=NH3+NO2                    4.8400E+00  3.36000     -2304.75
! R0073
2NH=NH2+N                           5.7000E-01  3.88000       172.10
! R0074
2NH2=NH3+NH                         5.6360E+00  3.53000       278.08
! R0075
NH2+NH=NH3+N                        9.5740E+03  2.46000        54.00
! R0076
N2H2+M=NNH+H+M                      1.9000E+27 -3.05000     33262.81
H2O/7.0000/ 
! R0077
N2H2+H=NNH+H2                       4.8200E+08  1.76000       372.00
! R0078
!!N2H2+O=NH2+NO                       1.0000E+13  0.00000         0.00
! R0079
!!N2H2+O=NNH+OH                       1.1100E+08  1.62000       405.00
! R0080
!!N2H2+OH=NNH+H2O                     6.7400E+03  2.80000      -255.13
! R0081
!!N2H2+NO=N2O+NH2                     4.0000E+12  0.00000      5998.38
! R0082
!!N2H2+NO2=NNH+HONO                   1.2500E+00  3.80000      5233.48
! R0083
N2H2+NH=NNH+NH2                     2.4000E+06  2.00000      -599.84
! R0084
N2H2+NH2=NNH+NH3                    2.7100E+05  2.22600      -518.32
! R0085
NH2+NH=N2H2+H                       1.3000E+14 -0.27200       -38.75
! R0086
2NH2=N2H2+H2                        1.7000E+08  1.62000      5929.44
! R0087
!!N2H2+HO2=NNH+H2O2                   1.0000E+13  0.00000       999.90
! R0088
2NH2(+M)=N2H4(+M)                   5.6000E+14 -0.41400        33.21
LOW  /                              1.6000E+34 -5.49000       999.90/
TROE /                              3.100E-01   1.00E-30   1.00E+30   1.00E+30/
AR/0.5900/ N2/1.0000/ O2/0.6900/ NH3/4.8700/ 
! R0089
N2H4=N2H2+H2                        5.1900E+38 -7.84000     33766.03
! R0090
N2H4+H=N2H3+H2                      2.7600E+05  2.56000       613.93
! R0091
!!N2H4+OH=N2H3+H2O                    1.3000E+13  0.00000      -160.02
! R0092
N2H4+NH2=N2H3+NH3                   7.6000E-01  4.00000      2037.03
! R0093
N2H4+N2H2=2N2H3                     2.5000E+10  0.50000     14995.94
! R0094
N2H4+NH=N2H3+NH2                    1.0000E+12  0.00000      1001.41
! R0095
!!N2H4+O=N2H2+H2O                     4.4000E+11  0.00000      -639.09
! R0096
!!N2H4+O=N2H3+OH                      6.7000E+08  1.50000      1434.68
! R0097
!!N2H4+NO=N2H3+HNO                    6.0000E+01  3.16000     15521.81
! R0098
!!N2H4+NO2=N2H3+HONO                  8.2000E+01  3.13000      4458.53
! R0099
!!N2H4+NO2=N2H3+HNO2                  2.4000E-02  4.14000      3998.58
! R0100
N2H3(+M)=N2H2+H(+M)                 1.2800E+11  0.81900     24204.86
LOW  /                              3.8400E+40 -6.88000     27425.47/
TROE /                              8.420E-01   8.00E+04   2.80E+01   7.30E+03/
AR/1.0000/ N2/2.0000/ 
! R0101
N2H3+H=N2H2+H2                      7.4760E+03  2.79600      2355.07
! R0102
N2H3+H=H2NN+H2                      6.2430E+06  1.89000       124.30
! R0103
N2H3+H=NH3+NH                       1.0000E+11  0.00000         0.00
! R0104
!!N2H3+O=N2H2+OH                      1.7000E+08  1.50000      -325.08
! R0105
!!N2H3+O=NH2+HNO                      3.0000E+13  0.00000         0.00
! R0106
!!N2H3+O=>NH2+NO+H                    3.0000E+13  0.00000         0.00
! R0107
!!N2H3+OH=N2H2+H2O                    1.2000E+06  2.00000      -599.84
! R0108
!!N2H3+OH=H2NN+H2O                    3.0000E+13  0.00000         0.00
! R0109
!!N2H3+OH=NH3+HNO                     1.0000E+12  0.00000      7548.29
! R0110
!!N2H3+HO2=N2H2+H2O2                  1.4000E+04  2.69000      -805.15
! R0111
!!N2H3+HO2=N2H4+O2                    9.2000E+05  1.94000      1069.84
! R0112
N2H3+NH2=N2H2+NH3                   6.0800E-01  3.57400       598.83
! R0113
N2H3+NH2=H2NN+NH3                   1.1100E+01  3.08000       106.18
! R0114
N2H3+NH=N2H2+NH2                    2.0000E+13  0.00000         0.00
! R0115
N2H3+N2H2=N2H4+NNH                  1.0000E+13  0.00000      5002.00
! R0116
2N2H3=2NH3+N2                       3.0000E+12  0.00000         0.00
! R0117
2N2H2=N2H3+NNH                      1.0000E+13  0.00000      4999.49
! R0118
2NH2=H2NN+H2                        7.2000E+04  1.88000      4429.34
! R0119
H2NN=NNH+H                          3.4000E+26 -4.83000     23258.81
! R0120
H2NN+H=NNH+H2                       4.8000E+08  1.50000      -449.88
! R0121
H2NN+H=N2H2+H                       7.0000E+13  0.00000         0.00
! R0122
!!H2NN+O=NNH+OH                       3.3000E+08  1.50000      -449.88
! R0123
!!H2NN+O=NH2+NO                       7.0000E+13  0.00000         0.00
! R0124
!!H2NN+OH=NNH+H2O                     2.4000E+06  2.00000      -599.84
! R0125
!!H2NN+OH=>NH2+NO+H                   2.0000E+12  0.00000         0.00
! R0126
!!H2NN+HO2=>NH2+NO+OH                 9.0000E+12  0.00000         0.00
! R0127
!!H2NN+HO2=NNH+H2O2                   2.9000E+04  2.69000      -805.15
! R0128
!!H2NN+O2=NH2+NO2                     1.5000E+12  0.00000      2999.69
! R0129
H2NN+NH2=NNH+NH3                    1.8000E+06  1.94000      -579.71
! R0130
!!H2NO+M=HNOH+M                       1.1000E+29 -4.00000     22141.66
!!H2O/10.0000/ 
! R0131
!!HNOH+M=HNO+H+M                      2.0000E+24 -2.80000     29654.73
!!H2O/10.0000/ 
! R0132
!!HNOH+H=NH2+OH                       4.0000E+13  0.00000         0.00
! R0133
!!HNOH+H=HNO+H2                       4.8000E+08  1.50000       190.22
! R0134
!!HNOH+O=HNO+OH                       7.0000E+13  0.00000         0.00
!!DUPLICATE
! R0135
!!HNOH+O=HNO+OH                       3.3000E+08  1.50000      -180.15
!!DUPLICATE
! R0136
!!HNOH+OH=HNO+H2O                     2.4000E+06  2.00000      -599.84
! R0137
!!HNOH+HO2=HNO+H2O2                   2.9000E+04  2.70000      -805.15
! R0138
!!HNOH+O2=HNO+HO2                     3.0000E+12  0.00000     12580.49
! R0139
!!HNOH+NH2=N2H3+OH                    1.0000E+01  3.50000      -235.00
! R0140
!!HNOH+NH2=H2NN+H2O                   8.8000E+16 -1.10000       560.08
! R0141
!!HNOH+NH2=NH3+HNO                    1.8000E+06  1.90000      -579.71
! R0142
!!HNOH+NO2=HONO+HNO                   6.0000E+11  0.00000      1006.44
! R0143
!!NH2OH(+M)=NH2+OH(+M)                1.4000E+20 -1.31000     32246.31
!!LOW  /                              5.4000E+37 -5.96000     33605.00/
!!TROE /                              3.500E-01   1.00E-30   1.00E+30   1.00E+30/
! R0144
!!NH2OH+H=HNOH+H2                     4.8000E+08  1.50000      3144.62
! R0145
!!NH2OH+H=H2NO+H2                     2.4000E+08  1.50000      2549.81
! R0146
!!NH2OH+O=HNOH+OH                     3.3000E+08  1.50000      1944.94
! R0147
!!NH2OH+O=H2NO+OH                     1.7000E+08  1.50000      1514.69
! R0148
!!NH2OH+OH=HNOH+H2O                   1.5000E+04  2.61000     -1779.89
! R0149
!!NH2OH+OH=H2NO+H2O                   1.5000E+05  2.28000      -652.17
! R0150
!!NH2OH+NH2=HNOH+NH3                  1.1000E-01  4.00000       -48.81
! R0151
!!NH2OH+NH2=H2NO+NH3                  9.5000E+00  3.42000      -509.76
! R0152
!!NH2OH+NH=HNOH+NH2                   2.9000E-03  4.40000       787.04
! R0153
!!NH2OH+NH=H2NO+NH2                   1.5000E-03  4.60000      1219.80
! R0154
!!NH2OH+HO2=HNOH+H2O2                 2.9000E+04  2.69000      4809.27
! R0155
!!NH2OH+HO2=H2NO+H2O2                 1.4000E+04  2.69000      3229.66
! R0156
!!HNOH+HNO=NH2OH+NO                   1.0000E+12  0.00000      1509.66
! R0157
NH3+M=NH2+H+M                       2.2000E+16  0.00000     47035.93
! R0158
NH3+H=NH2+H2                        2.8900E+06  2.23000      5233.48
! R0159
!!NH3+OH=H2O+NH2                      1.5590E+05  2.37200        59.83
! R0160
!!NH3+HO2=NH2+H2O2                    1.1730E+00  3.83900      8685.57
! R0161
!!NH3+O=NH2+OH                        4.4300E+02  3.18000      3391.65
! R0162
NH3+NH2=N2H3+H2                     1.0000E+11  0.50000     10869.54
! R0163
NNH=N2+H                            3.3000E+08  0.00000         0.00
! R0164
NNH+H=N2+H2                         1.0000E+14  0.00000         0.00
! R0165
!!NNH+OH=N2+H2O                       5.0000E+13  0.00000         0.00
! R0166
!!NNH+NO=N2+HNO                       5.0000E+12  0.00000         0.00
! R0167
NNH+NH=N2+NH2                       5.0000E+13  0.00000         0.00
! R0168
NNH+NH2=N2+NH3                      5.0000E+13  0.00000         0.00
! R0169
!!NNH+O=N2O+H                         1.8700E+14 -0.27400       -11.07
! R0170
!!NNH+O=NH+NO                         5.1800E+11  0.38800      -205.82
! R0171
!!NNH+O=N2+OH                         1.2000E+13  0.14500      -109.20
! R0172
!!NNH+O2=N2+HO2                       5.6000E+14 -0.38500        -6.54
! R0173
2NNH=N2H2+N2                        1.0000E+13  0.00000      4999.49
! R0174
!!HNO=H+NO                            1.8259E+20 -3.00800     24094.15
!!PLOG/      0.1000     2.0121E+19   -3.0210  24049.8699/
!!PLOG/      1.0000     1.8259E+20   -3.0080  24094.1532/
!!PLOG/     10.0000     1.2762E+21   -2.9590  24204.8615/
!!PLOG/    100.0000     5.6445E+21   -2.8550  24385.5173/
!!PLOG/   1000.0000     9.7111E+21   -2.6420  24627.5659/
! R0175
!!HNO+O=NO+OH                         2.3000E+13  0.00000         0.00
! R0176
!!HNO+H=NO+H2                         4.4000E+11  0.72000       327.09
! R0177
!!HNO+OH=NO+H2O                       3.6000E+13  0.00000         0.00
! R0178
!!HNO+O2=NO+HO2                       2.0000E+13  0.00000      8051.51
! R0179
!!HNO+N=NO+NH                         1.0000E+13  0.00000      1001.41
! R0180
!!HNO+N=N2O+H                         5.0000E+10  0.50000      1509.66
! R0181
!!HNO+NH=NH2+NO                       5.0000E+11  0.50000         0.00
! R0182
!!HNO+NO=N2O+OH                       8.5100E+12  0.00000     14900.33
! R0183
!!HNO+NO2=HONO+NO                     4.4000E+04  2.60000      2033.01
! R0184
!!2HNO=N2O+H2O                        9.0000E+08  0.00000      1559.98
! R0185
!!HON+M=NO+H+M                        5.1000E+19 -1.73000      8071.64
!!AR/0.7000/ H2O/7.0000/ 
! R0186
!!HON+H=HNO+H                         2.4000E+13  0.00000         0.00
! R0187
!!HON+H=OH+NH                         1.0000E+13  0.00000         0.00
! R0188
!!HON+O=OH+NO                         7.0000E+13  0.00000         0.00
! R0189
!!HON+OH=HONO+H                       4.0000E+13  0.00000         0.00
! R0190
!!HON+O2=NO2+OH                       1.0000E+12  0.00000      2499.99
! R0191
!!OH+NO=HONO                          1.8000E+22 -3.10000       925.42
!!PLOG/      0.1000     6.9200E+21   -3.8600    293.1757/
!!PLOG/      0.2154     1.4600E+22   -3.8500    356.3298/
!!PLOG/      0.4641     2.9300E+22   -3.8400    427.8373/
!!PLOG/      1.0000     5.3400E+22   -3.8200    505.7357/
!!PLOG/      2.1540     8.5300E+22   -3.7800    588.2637/
!!PLOG/      4.6410     1.1500E+23   -3.7200    674.3142/
!!PLOG/     10.0000     1.2500E+23   -3.6300    759.8616/
!!PLOG/     21.5400     1.0100E+23   -3.5000    837.3574/
!!PLOG/     46.4100     5.4700E+22   -3.3300    896.7373/
!!PLOG/    100.0000     1.8000E+22   -3.1000    925.4208/
! R0192
!!NO+HO2=NO2+OH                       2.1000E+12  0.00000      -241.55
! R0193
!!HONO+H=NO2+H2                       1.9000E+03  2.80000       704.51
! R0194
!!HNO2+H=NO2+H2                       2.3000E+04  2.80000     -1006.44
! R0195
!!NO2+H=NO+OH                         1.3800E+13  0.29000        12.63
! R0196
!!NO2+O=NO+O2                         1.1000E+14 -0.50000         0.00
! R0197
!!NO+O(+M)=NO2(+M)                    2.9500E+14 -0.40000         0.00
!!LOW  /                              3.3360E+20 -1.60000         0.00/
!!TROE /                              8.000E-01   1.00E-30   1.00E+30   1.00E+30/
!!H2/1.0000/ H2O/6.4000/ O2/0.4500/ N2/0.4000/ AR/0.3500/ HE/0.3500/ 
! R0198
!!NO2+OH(+M)=HONO2(+M)                3.0000E+13  0.00000         0.00
!!LOW  /                              2.9380E+25 -3.00000         0.00/
!!TROE /                              4.000E-01   1.00E-30   1.00E+30   1.00E+30/
! R0199
!!2NO2=2NO+O2                         4.5000E+12  0.00000     13888.86
! R0200
!!NO2+HO2=HONO+O2                     1.9100E+00  3.32000      1531.80
! R0201
!!NO2+HO2=HNO2+O2                     1.8500E+01  3.26000      2507.54
! R0202
!!N2O(+M)=N2+O(+M)                    1.3000E+12  0.00000     31486.45
!!LOW  /                              4.0000E+14  0.00000     28482.23/
!!N2/1.7000/ O2/1.4000/ H2O/12.0000/ 